/*--------------------------------*- C++ -*----------------------------------*\
  =========                 |
  \\      /  F ield         | OpenFOAM: The Open Source CFD Toolbox
   \\    /   O peration     | Website:  https://openfoam.org
    \\  /    A nd           | Version:  13
     \\/     M anipulation  |
\*---------------------------------------------------------------------------*/
FoamFile
{
    format      ascii;
    class       volScalarField;
    location    "0";
    object      k;
}
// * * * * * * * * * * * * * * * * * * * * * * * * * * * * * * * * * * * * * //

dimensions      [0 2 -2 0 0 0 0];

internalField   uniform 1.5;

boundaryField
{
    inlet1
    {
        type            fixedValue;
        value           uniform 1.5;
    }
    inlet2
    {
        type            fixedValue;
        value           uniform 1.5;
    }
    outlet
    {
        type            zeroGradient;
    }
    lowerWall
    {
        type            kqRWallFunction;
        value           uniform 1.5;
    }
    inletwall
    {
        type            kqRWallFunction;
        value           uniform 1.5;
    }
    frontAndBack
    {
        type            empty;
    }
}


// ************************************************************************* //
